Version 4.1
SHEET 1 3812 932
WIRE -960 -176 -960 -224
WIRE -960 -176 -1120 -176
WIRE -784 -176 -960 -176
WIRE -608 -176 -784 -176
WIRE -512 -176 -608 -176
WIRE -608 -112 -608 -176
WIRE -1120 -96 -1120 -176
WIRE -512 -96 -560 -96
WIRE -512 -48 -560 -48
WIRE -512 -32 -512 -48
WIRE -784 -16 -784 -176
WIRE -608 32 -608 -32
WIRE -512 32 -608 32
WIRE -1120 64 -1120 -16
WIRE -608 96 -608 32
WIRE -512 96 -512 32
WIRE -1120 240 -1120 144
WIRE -960 240 -1120 240
WIRE -784 240 -784 48
WIRE -784 240 -960 240
WIRE -608 240 -608 176
WIRE -608 240 -784 240
WIRE -512 240 -512 176
WIRE -512 240 -608 240
WIRE -400 272 -432 272
WIRE -288 272 -320 272
WIRE -960 288 -960 240
WIRE -432 304 -432 272
WIRE -288 336 -288 272
WIRE -192 336 -288 336
WIRE -144 336 -192 336
WIRE 16 336 -48 336
WIRE 128 336 16 336
WIRE 368 336 336 336
WIRE 464 336 368 336
WIRE -192 352 -192 336
WIRE 464 384 464 336
WIRE 368 400 336 400
WIRE 416 400 368 400
WIRE -1264 416 -1264 352
WIRE -1264 416 -1376 416
WIRE -960 416 -1264 416
WIRE -656 416 -736 416
WIRE -496 416 -592 416
WIRE 16 432 16 336
WIRE -192 448 -192 432
WIRE -128 448 -128 384
WIRE -128 448 -192 448
WIRE -288 480 -288 336
WIRE -128 480 -128 448
WIRE -736 496 -736 416
WIRE -736 496 -1136 496
WIRE -656 496 -736 496
WIRE -496 496 -496 416
WIRE -496 496 -576 496
WIRE 128 496 128 336
WIRE -1264 512 -1264 416
WIRE 464 512 464 480
WIRE -960 560 -960 416
WIRE 16 560 16 512
WIRE -1376 576 -1376 416
WIRE -992 576 -1024 576
WIRE -896 592 -928 592
WIRE -784 592 -896 592
WIRE -1264 608 -1264 592
WIRE -1136 608 -1136 496
WIRE -1136 608 -1264 608
WIRE -992 608 -1136 608
WIRE -576 608 -640 608
WIRE -496 608 -496 496
WIRE -496 608 -576 608
WIRE -400 608 -496 608
WIRE -288 608 -288 560
WIRE -288 608 -400 608
WIRE -128 608 -128 560
WIRE 128 608 128 576
WIRE 272 608 128 608
WIRE -1264 624 -1264 608
WIRE -784 624 -832 624
WIRE -1136 640 -1136 608
WIRE -576 640 -576 608
WIRE -400 640 -400 608
WIRE 128 640 128 608
WIRE 464 640 464 592
WIRE -1024 672 -1024 576
WIRE -896 672 -896 592
WIRE -896 672 -1024 672
WIRE -288 688 -288 608
WIRE -240 688 -288 688
WIRE -176 688 -240 688
WIRE -1376 736 -1376 640
WIRE -1264 736 -1264 704
WIRE -1264 736 -1376 736
WIRE -1136 736 -1136 704
WIRE -1136 736 -1264 736
WIRE -960 736 -960 624
WIRE -960 736 -1136 736
WIRE -832 736 -832 624
WIRE -832 736 -960 736
WIRE -576 736 -576 704
WIRE -576 736 -832 736
WIRE -400 736 -400 704
WIRE -400 736 -576 736
WIRE -128 736 -128 704
WIRE -128 736 -400 736
WIRE 16 736 16 624
WIRE 16 736 -128 736
WIRE 128 736 128 720
WIRE 128 736 16 736
WIRE 464 736 464 704
WIRE 464 736 128 736
WIRE -1264 784 -1264 736
FLAG -1264 784 0
FLAG -960 -224 Vbatt
FLAG -1264 352 Vbatt
FLAG -512 -32 0
FLAG -512 -96 PowerOK
FLAG -960 288 0
FLAG -512 -176 VOut
FLAG -432 304 0
FLAG -240 688 POK
FLAG 368 400 POK
FLAG -192 336 VFan
FLAG 368 336 VFan
SYMBOL cap -800 -16 R0
WINDOW 3 45 46 Left 2
SYMATTR Value 100e-6
SYMATTR InstName C1
SYMBOL res -1280 496 R0
SYMATTR InstName R2
SYMATTR Value 2.2215e6
SYMBOL res -1280 608 R0
WINDOW 0 -35 52 Left 2
WINDOW 3 -62 87 Left 2
SYMATTR InstName R3
SYMATTR Value 733e3
SYMBOL bu4830 -704 608 M0
SYMATTR InstName U1
SYMBOL cap -592 640 R0
WINDOW 3 45 46 Left 2
SYMATTR Value 10e-9
SYMATTR InstName C4
SYMBOL Opamps\\UniversalOpamp2 -960 592 R0
SYMATTR InstName U3
SYMATTR Value2 Avol=0.1Meg GBW=0.1Meg Slew=40000
SYMATTR SpiceLine ilimit=50m rail=0 Vos=0 phimargin=35
SYMBOL cap -1392 576 R0
WINDOW 3 -82 13 Left 2
SYMATTR Value 100e-9
SYMATTR InstName C5
SYMBOL res -560 480 R90
WINDOW 0 0 56 VBottom 2
WINDOW 3 32 56 VTop 2
SYMATTR InstName R8
SYMATTR Value 9.1e6
SYMBOL sw -608 -16 R180
SYMATTR InstName S4
SYMATTR Value LoadOn
SYMBOL current -608 96 R0
WINDOW 123 0 0 Left 0
WINDOW 39 0 0 Left 0
SYMATTR InstName I3
SYMATTR Value 2
SYMBOL res -528 80 R0
SYMATTR InstName R4
SYMATTR Value 1e6
SYMBOL voltage -1120 48 R0
WINDOW 123 0 0 Left 0
WINDOW 39 -208 95 Left 2
WINDOW 0 -92 25 Left 2
WINDOW 3 -459 61 Left 2
SYMATTR SpiceLine Rser=367e-3
SYMATTR InstName V1
SYMATTR Value PWL(0 0.0 5 11.3333 100 14.1333 275 11.3333)
SYMBOL cap -1152 640 R0
WINDOW 3 25 48 Left 2
SYMATTR Value 220e-9
SYMATTR InstName C6
SYMBOL bv -1120 -112 R0
SYMATTR InstName B1
SYMATTR Value V=white(2e6*time)/2*0
SYMBOL cap -592 400 R90
WINDOW 3 -30 -24 VTop 2
WINDOW 0 0 61 VBottom 2
SYMATTR Value 22e-9
SYMATTR InstName C7
SYMBOL pmos -48 384 M270
SYMATTR InstName M1
SYMATTR Value DMP32D4SW
SYMATTR Prefix X
SYMBOL nmos -176 608 R0
SYMATTR InstName M2
SYMATTR Value F2N7002
SYMATTR Prefix X
SYMBOL res 112 480 R0
SYMATTR InstName R1
SYMATTR Value 2.5e3
SYMBOL res 112 624 R0
SYMATTR InstName R6
SYMATTR Value 2.5e3
SYMBOL res -272 576 R180
WINDOW 0 36 76 Left 2
WINDOW 3 36 40 Left 2
SYMATTR InstName R9
SYMATTR Value 2.2e6
SYMBOL zener -384 704 R180
WINDOW 0 24 64 Left 2
WINDOW 3 24 0 Left 2
SYMATTR InstName D1
SYMATTR Value STZ5_6N
SYMBOL voltage -304 272 R90
WINDOW 0 32 56 VTop 2
WINDOW 3 -32 56 VBottom 2
WINDOW 123 0 0 Left 0
WINDOW 39 0 0 Left 0
SYMATTR InstName V3
SYMATTR Value 5
SYMBOL res -112 576 R180
WINDOW 0 36 76 Left 2
WINDOW 3 36 40 Left 2
SYMATTR InstName R5
SYMATTR Value 100e3
SYMBOL res -176 448 R180
WINDOW 0 36 76 Left 2
WINDOW 3 36 40 Left 2
SYMATTR InstName R10
SYMATTR Value 680e3
SYMBOL res 32 528 R180
WINDOW 0 36 76 Left 2
WINDOW 3 36 40 Left 2
SYMATTR InstName R11
SYMATTR Value 1e3
SYMBOL LED 0 560 R0
SYMATTR InstName D2
SYMBOL res 480 608 R180
WINDOW 0 36 76 Left 2
WINDOW 3 36 40 Left 2
SYMATTR InstName R12
SYMATTR Value 1e3
SYMBOL LED 448 640 R0
SYMATTR InstName D3
SYMBOL pmos 416 480 M180
SYMATTR InstName M4
SYMATTR Value DMP32D4SW
SYMATTR Prefix X
TEXT -80 -264 Left 2 !.MODEL LoadOn SW(Ron=1e-12 Roff=1e20 Vt=0.995)
TEXT -80 -328 Left 2 !.tran 300
TEXT -80 -296 Left 2 !.lib dz2j036.lib
TEXT -1152 776 Left 2 ;Op. amp. is current programmable
TEXT -80 -232 Left 2 !.inc DMP32D4S.txt
TEXT -80 -200 Left 2 !.inc 2N7002.lib
